22
Properties=species:S:1:pos:R:3 pbc="F F F"
C       -2.36300000      -0.81900000       0.13900000
H       -3.26100000      -0.53200000       0.72800000
H       -2.65100000      -0.91000000      -0.92900000
H       -1.99300000      -1.79900000       0.50900000
C       -1.31800000       0.21600000       0.30500000
O       -1.49800000       1.14700000       1.07700000
N       -0.21200000       0.03600000      -0.43500000
H       -0.18300000      -0.77300000      -1.01100000
C        0.99800000       0.84300000      -0.46600000
H        1.34100000       0.73500000      -1.52200000
C        0.81100000       2.37900000      -0.30300000
H        0.42200000       2.64100000       0.70000000
H        0.07600000       2.74500000      -1.05100000
H        1.77100000       2.91100000      -0.46400000
C        2.15700000       0.20700000       0.31400000
O        2.95200000      -0.51500000      -0.28000000
N        2.35700000       0.38400000       1.63700000
H        3.15200000      -0.10200000       1.98800000
C        1.54900000       1.10200000       2.59500000
H        1.83200000       0.80900000       3.63000000
H        0.46800000       0.87600000       2.46800000
H        1.69900000       2.20000000       2.49500000
