12
Properties=species:S:1:pos:R:3 pbc="F F F"
C        0.75200000       1.09500000       0.69400000
O        0.17500000       2.16800000      -0.01800000
H       -0.15200000       2.77800000       0.64600000
H        1.55200000       1.48600000       1.36800000
C       -0.35100000       0.43600000       1.51600000
H        0.04900000      -0.44300000       2.06200000
H       -0.77700000       1.14700000       2.25300000
H       -1.17100000       0.08600000       0.84600000
C        1.37100000       0.13400000      -0.32000000
H        1.86700000      -0.71000000       0.20200000
H        2.12400000       0.66100000      -0.94300000
H        0.58400000      -0.27300000      -0.99000000
