15
Properties=species:S:1:pos:R:3 pbc="F F F"
O       -0.79500000       0.76500000      -0.76600000
C       -0.38900000       1.78900000       0.14500000
C        0.21600000      -0.24600000      -0.72500000
H        0.38800000       2.39600000      -0.34600000
H       -1.25000000       2.43400000       0.36400000
H       -0.20400000      -1.18300000      -1.11700000
H        1.03900000       0.06700000      -1.38500000
C        0.13700000       1.02400000       1.35600000
H       -0.70400000       0.82100000       2.04100000
O        1.13500000       1.79100000       2.04300000
H        1.12900000       1.57200000       2.98100000
C        0.62400000      -0.33300000       0.74600000
H        0.08600000      -1.16100000       1.23500000
O        2.02700000      -0.57600000       0.87300000
H        2.44500000       0.28500000       1.00500000
