15
Properties=species:S:1:pos:R:3 pbc="F F F"
C        1.49200000       1.13000000       1.05900000
H        2.54600000       1.08400000       1.36900000
H        1.15600000       2.16600000       1.23600000
C        1.28300000       0.76000000      -0.41800000
H        2.03300000       0.01800000      -0.73100000
H        1.40600000       1.62600000      -1.08400000
C       -0.12900000       0.14300000      -0.50600000
H       -0.07700000      -0.85500000      -0.97200000
H       -0.80200000       0.74200000      -1.13500000
C       -0.65200000       0.04600000       0.93900000
H       -1.23300000      -0.86700000       1.12500000
H       -1.32700000       0.89400000       1.14300000
C        0.59200000       0.15900000       1.82600000
H        1.08500000      -0.82400000       1.91500000
H        0.36500000       0.49400000       2.84700000
