15
Properties=species:S:1:pos:R:3 pbc="F F F"
C        1.24128202      -0.47398080       0.01790488
H        0.80580530      -0.77692643      -0.93585448
H        2.11321994      -1.09885281       0.20706035
C        1.58057898       1.01272350      -0.02676917
H        2.23939323       1.27000494       0.80449861
H        2.06437214       1.30716442      -0.95725866
C        0.21799391       1.67108766       0.16532150
H        0.29373665       2.71574217       0.46444877
H       -0.34428025       1.62394220      -0.76888078
C       -0.46191528       0.80780832       1.23454088
H       -0.29094246       1.23358189       2.22359406
H       -1.53892699       0.75862671       1.07921187
C        0.19499137      -0.58297701       1.13389141
H       -0.53657092      -1.36019336       0.91641466
H        0.67764440      -0.84006377       2.07706905
