28
Properties=species:S:1:pos:R:3 pbc="F F F"
C       -0.04258225      -0.15408142       0.28593854
C       -0.01398808       0.49680511      -1.10781339
O       -0.00676993      -1.32308674       0.52266373
C       -0.01305468      -0.55888714      -2.23140715
O       -0.01250045       0.83803560       1.20177618
H       -0.92064010      -0.29476872       2.75713134
H        0.89798494      -1.20880535      -2.19022581
H       -0.91370385       1.13256758      -1.19139011
H        0.05260346      -0.05899552      -3.22842916
H       -0.89634101      -1.20616701      -2.19915027
C       -0.01508992       0.32749172       2.54791446
H        0.91999006      -0.28367702       2.72810985
H        0.89765192       1.13849492      -1.19568964
H        0.07028163       1.18706708       3.25862789
C        8.00742118       0.00643140       0.29317143
C        7.85679015      -0.61323641      -1.11688301
O        7.79917712      -0.94999881       1.20625117
C        8.07613863       0.41080906      -2.25484233
O        8.22513655       1.17041396       0.53352634
H        7.64144363      -1.26518821       3.26056225
H        8.62918973      -1.43611326      -1.20123942
H        7.33924549       1.24063629      -2.16767041
H        7.90892260      -0.06047518      -3.24069257
H        6.85434723      -1.06326729      -1.19244911
C        7.89308765      -0.47882842       2.54910944
H        8.90076851      -0.03540168       2.75508016
H        9.10246292       0.85286720      -2.17139833
H        7.14088007       0.34301945       2.74024559
