15
Properties=species:S:1:pos:R:3 pbc="F F F"
C        1.49706864       1.30009002      -0.17176636
H        2.52601212       1.34258833       0.20710863
H        1.15341708       2.34083617      -0.28679695
C        1.37375654       0.56010616      -1.50839340
H        1.96218268      -0.37118591      -1.47353854
H        1.74587331       1.14010798      -2.36158122
C       -0.12244953       0.22789065      -1.60874376
H       -0.31506062      -0.66395006      -2.21819875
H       -0.65679645       1.05982533      -2.09693386
C       -0.61782827       0.07718754      -0.15504782
H       -0.91195427      -0.95844519       0.07003716
H       -1.51385753       0.69546377       0.00982836
C        0.54267426       0.53254814       0.75146248
H        1.05853979      -0.35137136       1.16309718
H        0.20800473       1.12593603       1.61038472
