 xtb: 6.7.1 (edcfbbe)
          06262504433D

 28 26  0     0  0            999 V2000
   -0.0426   -0.1541    0.2859 C   0  0  0  0  0  0  0  0  0  0  0  0
   -0.0140    0.4968   -1.1078 C   0  0  0  0  0  0  0  0  0  0  0  0
   -0.0068   -1.3231    0.5227 O   0  0  0  0  0  0  0  0  0  0  0  0
   -0.0131   -0.5589   -2.2314 C   0  0  0  0  0  0  0  0  0  0  0  0
   -0.0125    0.8380    1.2018 O   0  0  0  0  0  0  0  0  0  0  0  0
   -0.9206   -0.2948    2.7571 H   0  0  0  0  0  0  0  0  0  0  0  0
    0.8980   -1.2088   -2.1902 H   0  0  0  0  0  0  0  0  0  0  0  0
   -0.9137    1.1326   -1.1914 H   0  0  0  0  0  0  0  0  0  0  0  0
    0.0526   -0.0590   -3.2284 H   0  0  0  0  0  0  0  0  0  0  0  0
   -0.8963   -1.2062   -2.1992 H   0  0  0  0  0  0  0  0  0  0  0  0
   -0.0151    0.3275    2.5479 C   0  0  0  0  0  0  0  0  0  0  0  0
    0.9200   -0.2837    2.7281 H   0  0  0  0  0  0  0  0  0  0  0  0
    0.8977    1.1385   -1.1957 H   0  0  0  0  0  0  0  0  0  0  0  0
    0.0703    1.1871    3.2586 H   0  0  0  0  0  0  0  0  0  0  0  0
    8.0074    0.0064    0.2932 C   0  0  0  0  0  0  0  0  0  0  0  0
    7.8568   -0.6132   -1.1169 C   0  0  0  0  0  0  0  0  0  0  0  0
    7.7992   -0.9500    1.2063 O   0  0  0  0  0  0  0  0  0  0  0  0
    8.0761    0.4108   -2.2548 C   0  0  0  0  0  0  0  0  0  0  0  0
    8.2251    1.1704    0.5335 O   0  0  0  0  0  0  0  0  0  0  0  0
    7.6414   -1.2652    3.2606 H   0  0  0  0  0  0  0  0  0  0  0  0
    8.6292   -1.4361   -1.2012 H   0  0  0  0  0  0  0  0  0  0  0  0
    7.3392    1.2406   -2.1677 H   0  0  0  0  0  0  0  0  0  0  0  0
    7.9089   -0.0605   -3.2407 H   0  0  0  0  0  0  0  0  0  0  0  0
    6.8543   -1.0633   -1.1924 H   0  0  0  0  0  0  0  0  0  0  0  0
    7.8931   -0.4788    2.5491 C   0  0  0  0  0  0  0  0  0  0  0  0
    8.9008   -0.0354    2.7551 H   0  0  0  0  0  0  0  0  0  0  0  0
    9.1025    0.8529   -2.1714 H   0  0  0  0  0  0  0  0  0  0  0  0
    7.1409    0.3430    2.7402 H   0  0  0  0  0  0  0  0  0  0  0  0
  1  2  1  0  0  0  0
  1  3  2  0  0  0  0
  2  4  1  0  0  0  0
  1  5  1  0  0  0  0
  4  7  1  0  0  0  0
  2  8  1  0  0  0  0
  4  9  1  0  0  0  0
  4 10  1  0  0  0  0
  5 11  1  0  0  0  0
  6 11  1  0  0  0  0
 11 12  1  0  0  0  0
  2 13  1  0  0  0  0
 11 14  1  0  0  0  0
 15 16  1  0  0  0  0
 15 17  1  0  0  0  0
 16 18  1  0  0  0  0
 15 19  2  0  0  0  0
 16 21  1  0  0  0  0
 18 22  1  0  0  0  0
 18 23  1  0  0  0  0
 16 24  1  0  0  0  0
 17 25  1  0  0  0  0
 20 25  1  0  0  0  0
 25 26  1  0  0  0  0
 18 27  1  0  0  0  0
 25 28  1  0  0  0  0
M  END
